<?xml version="1.0" encoding="UTF-8"?>

<!-- generated on Sat May  1 22:26:15 2021 by Eclipse SUMO polyconvert Version 1.9.0
<configuration xmlns:xsi="http://www.w3.org/2001/XMLSchema-instance" xsi:noNamespaceSchemaLocation="http://sumo.dlr.de/xsd/polyconvertConfiguration.xsd">

    <input>
        <net-file value="osm.net.xml"/>
        <osm-files value="osm_bbox.osm.xml"/>
        <osm.keep-full-type value="true"/>
        <type-file value="C:\Program%20Files%20(x86)\Eclipse\Sumo\data\typemap\osmPolyconvert.typ.xml"/>
    </input>

    <output>
        <output-file value="osm.poly.xml"/>
    </output>

    <processing>
        <poi-layer-offset value="5"/>
    </processing>

    <report>
        <verbose value="true"/>
    </report>

</configuration>
-->

<additional xmlns:xsi="http://www.w3.org/2001/XMLSchema-instance" xsi:noNamespaceSchemaLocation="http://sumo.dlr.de/xsd/additional_file.xsd">
    <location netOffset="-348158.30,-142477.59" convBoundary="-4014.45,-9557.99,23735.17,17967.37" origBoundary="103.599189,1.202227,103.848544,1.451229" projParameter="+proj=utm +zone=48 +ellps=WGS84 +datum=WGS84 +units=m +no_defs"/>

    <poly id="100154043" type="building.yes" color="255,230,230" fill="1" layer="-1.00" shape="5944.615209,5470.243597 5944.398540,5460.426002 5936.764709,5459.634053 5937.152862,5457.190474 5907.874424,5453.071190 5905.180548,5471.934135 5934.180781,5476.020398 5934.568905,5473.521539 5936.393996,5473.885410 5928.421186,5484.260183 5887.547043,5478.389204 5884.841582,5496.389791 5914.342702,5500.763236 5916.105693,5489.042953 5924.117892,5489.901035 5898.386929,5523.325974 5870.489666,5500.974645 5854.309932,5520.895129 5851.760660,5518.851136 5824.505315,5552.398525 5831.307083,5557.845485 5828.360254,5561.462370 5830.241591,5562.964976 5824.125539,5570.486321 5829.057102,5574.441723 5827.533653,5576.322056 5849.530867,5593.955630 5851.210000,5591.887262 5860.037825,5598.958366 5867.087951,5590.264588 5877.574470,5598.661522 5886.570615,5587.578611 5890.533677,5590.760613 5907.936613,5569.335862 5920.449193,5579.367998 5933.882260,5562.832119 5930.676188,5560.257791 5943.608849,5544.330260 5910.813428,5518.045623 5902.984881,5527.679571 5901.136879,5526.088498 5944.615209,5470.243597"/>
    <poly id="100154049" type="building.school" color="255,230,230" fill="1" layer="-1.00" shape="5772.262117,5427.737074 5792.155088,5443.182699 5777.167094,5465.181078 5757.129732,5450.233051 5752.492875,5456.360550 5747.383347,5452.548969 5741.656785,5460.136442 5746.465755,5463.727064 5720.144967,5497.019683 5722.337934,5498.632683 5717.656659,5504.926048 5715.586141,5503.401431 5701.530385,5520.777919 5725.085090,5537.725190 5727.331206,5534.694646 5735.735699,5540.837274 5733.611896,5543.701913 5759.860976,5563.533352 5760.995262,5562.206026 5764.624428,5565.244479 5763.368303,5567.622189 5766.006561,5590.373998 5780.760311,5588.121730 5782.056480,5598.181984 5794.985671,5596.560884 5793.667052,5586.135795 5800.888157,5585.037385 5798.338934,5562.307643 5792.004670,5557.147889 5798.675916,5547.426105 5809.262444,5555.557642 5846.246839,5508.107670 5844.476852,5506.748731 5862.590978,5483.499361 5829.484419,5458.055140 5813.539143,5479.445947 5816.333272,5481.589313 5777.636427,5531.240349 5794.512540,5544.211042 5787.451899,5554.054650 5777.293019,5554.900346 5747.159283,5532.848732 5751.707294,5527.052958 5739.773740,5517.794431 5733.991757,5525.779951 5728.325727,5521.725438 5732.862369,5515.476374 5730.624899,5513.874454 5760.614364,5474.289015 5772.536594,5483.182703 5782.811063,5469.600452 5805.987401,5486.503707 5814.771707,5474.624878 5790.793882,5457.136083 5797.743064,5446.938745 5816.801144,5461.765681 5822.605622,5454.222393 5820.568477,5452.675645 5821.980677,5450.839596 5783.508574,5421.440200 5782.485556,5422.756410 5780.526331,5421.264900 5779.058523,5423.156259 5777.010243,5421.598460 5772.262117,5427.737074"/>
    <poly id="100154052" type="amenity.school" color="237,199,199" fill="1" layer="-1.00" shape="5825.456196,5624.173473 5815.376846,5565.736931 5814.394597,5560.065736 5913.039924,5436.705575 5982.613672,5487.957076 5981.277557,5507.228361 5976.515313,5528.580003 5968.765214,5539.253167 5932.969238,5582.556477 5909.702757,5605.101018 5895.976926,5615.180365 5825.456196,5624.173473"/>
    <poly id="100575785" type="amenity.place_of_worship" color="237,199,199" fill="1" layer="-1.00" shape="7608.506077,6418.852151 7620.254602,6415.252730 7612.696844,6410.900719 7621.689440,6393.228585 7636.782843,6402.197962 7646.666442,6406.990973 7661.514871,6415.639858 7652.398999,6431.664723 7641.947202,6425.545305 7649.876470,6438.001103 7637.435713,6458.118427 7629.266595,6475.889627 7588.742282,6457.503090 7598.513132,6438.603331 7608.506077,6418.852151"/>
    <poly id="100575785#1" type="building.yes" color="255,230,230" fill="1" layer="-1.00" shape="7608.506077,6418.852151 7620.254602,6415.252730 7612.696844,6410.900719 7621.689440,6393.228585 7636.782843,6402.197962 7646.666442,6406.990973 7661.514871,6415.639858 7652.398999,6431.664723 7641.947202,6425.545305 7649.876470,6438.001103 7637.435713,6458.118427 7629.266595,6475.889627 7588.742282,6457.503090 7598.513132,6438.603331 7608.506077,6418.852151"/>
    <poly id="100575789" type="amenity.place_of_worship" color="237,199,199" fill="1" layer="-1.00" shape="7560.954217,6514.256844 7565.800178,6503.839590 7569.217096,6505.407711 7573.518449,6496.173731 7581.076367,6479.917511 7595.367322,6486.477120 7598.512743,6479.698170 7613.449240,6486.555945 7594.976791,6526.267568 7570.590905,6515.080907 7569.212697,6518.044627 7560.954217,6514.256844"/>
    <poly id="100575789#1" type="building.yes" color="255,230,230" fill="1" layer="-1.00" shape="7560.954217,6514.256844 7565.800178,6503.839590 7569.217096,6505.407711 7573.518449,6496.173731 7581.076367,6479.917511 7595.367322,6486.477120 7598.512743,6479.698170 7613.449240,6486.555945 7594.976791,6526.267568 7570.590905,6515.080907 7569.212697,6518.044627 7560.954217,6514.256844"/>
    <poly id="100575799" type="building.commercial" color="255,230,230" fill="1" layer="-1.00" shape="7505.834451,6398.110598 7519.972332,6367.920416 7563.301614,6387.930688 7549.174868,6418.131913 7505.834451,6398.110598"/>
    <poly id="100575800" type="building.commercial" color="255,230,230" fill="1" layer="-1.00" shape="7441.329902,6419.958269 7470.702629,6434.492220 7490.043624,6395.918874 7459.123795,6380.622883 7451.153974,6396.525540 7445.199289,6393.576779 7439.508143,6404.923185 7447.009931,6408.633980 7441.329902,6419.958269"/>
    <poly id="100576906" type="building.residential" color="255,230,230" fill="1" layer="-1.00" shape="6838.095285,6752.809855 6837.334847,6745.756569 6840.572708,6745.401044 6840.248452,6742.482448 6837.244246,6742.804680 6835.063670,6722.750363 6833.184961,6705.360366 6843.644056,6704.249168 6844.616943,6713.226075 6853.807592,6712.248228 6852.387421,6699.180861 6863.347209,6698.003060 6866.232303,6724.591062 6861.625857,6725.091047 6861.950149,6728.075978 6857.900034,6728.509330 6857.609254,6725.767612 6854.393641,6726.112069 6853.879243,6721.369344 6850.741515,6721.702703 6850.931604,6723.427329 6848.149932,6723.727330 6850.777822,6747.927386 6849.342480,6748.082939 6849.722669,6751.554302 6838.095285,6752.809855"/>
    <poly id="100576910" type="building.residential" color="255,230,230" fill="1" layer="-1.00" shape="6778.572199,6726.451214 6777.778597,6719.807015 6780.070685,6719.540443 6779.645956,6716.013823 6776.541633,6716.391390 6771.344326,6673.298089 6769.533641,6658.262969 6780.938432,6656.908032 6782.167913,6667.123069 6790.935692,6666.079112 6789.236750,6651.917354 6801.242375,6650.484705 6804.506026,6677.492635 6798.775818,6678.181174 6799.066409,6680.569103 6795.327863,6681.013344 6794.456027,6673.727942 6788.058222,6674.494230 6788.393528,6677.269094 6783.831614,6677.813280 6788.727118,6718.363873 6791.085963,6718.086210 6791.510674,6721.579662 6789.185211,6721.857307 6789.587555,6725.140708 6778.572199,6726.451214"/>
    <poly id="100576912" type="building.residential" color="255,230,230" fill="1" layer="-1.00" shape="6825.537991,6679.935787 6824.296840,6668.703610 6827.479066,6668.348116 6827.244250,6666.214444 6840.774299,6664.747812 6840.148154,6659.120671 6843.274750,6658.776262 6842.771587,6654.232538 6834.871639,6655.088076 6834.413222,6650.986566 6837.495314,6650.653237 6836.936201,6645.523578 6863.451085,6642.634833 6864.681052,6653.767511 6851.885366,6655.156356 6852.947643,6664.829739 6862.227301,6663.829734 6863.546738,6675.802616 6845.232218,6677.791440 6825.537991,6679.935787"/>
    <poly id="100577249" type="building.residential" color="255,230,230" fill="1" layer="-1.00" shape="6886.965739,6792.916744 6885.747132,6782.226299 6876.489763,6783.281575 6875.450058,6774.205202 6888.234581,6772.761079 6886.982432,6761.772141 6860.178324,6764.793721 6860.737350,6769.757541 6857.888928,6770.079690 6858.358485,6774.203306 6865.724328,6773.370162 6866.216247,6777.692773 6863.345570,6778.014934 6863.971657,6783.531515 6840.227385,6786.219781 6840.473347,6788.386614 6837.257741,6788.742128 6838.364526,6798.404432 6868.017049,6795.049641 6886.965739,6792.916744"/>
    <poly id="100577250" type="amenity.parking" color="184,184,179" fill="1" layer="-1.00" shape="6783.299149,6805.421317 6776.357557,6746.640563 6806.499612,6743.130725 6813.452323,6801.911467 6783.299149,6805.421317"/>
    <poly id="100577250#1" type="building.garage" color="255,230,230" fill="1" layer="-1.00" shape="6783.299149,6805.421317 6776.357557,6746.640563 6806.499612,6743.130725 6813.452323,6801.911467 6783.299149,6805.421317"/>
    <poly id="102743536" type="building.residential" color="255,230,230" fill="1" layer="-1.00" shape="7593.766515,6259.179403 7592.362441,6255.354802 7587.356113,6257.170632 7588.024721,6258.994503 7586.879753,6261.151015 7584.631413,6259.980283 7586.376656,6256.695749 7583.315634,6254.795758 7582.459736,6256.498824 7578.797874,6254.665488 7575.752174,6260.659413 7579.213691,6262.393352 7577.757535,6265.257608 7574.206975,6263.479493 7571.161282,6269.484474 7574.945574,6271.373024 7574.178600,6272.899148 7577.295118,6274.533767 7579.018118,6271.271356 7581.288725,6272.464189 7580.521710,6273.912921 7583.037182,6275.227238 7585.616134,6270.361265 7587.018563,6271.090210 7589.108401,6267.142137 7590.755701,6268.003623 7588.799245,6271.675227 7594.976626,6274.911327 7593.853901,6277.045716 7592.384684,6276.272582 7591.684369,6277.599664 7586.820375,6275.048333 7585.464194,6277.591914 7586.888884,6278.331904 7585.766153,6280.455236 7582.560588,6278.765385 7581.248869,6281.220495 7580.493000,6282.702390 7581.828630,6283.365035 7580.083469,6286.804352 7586.171732,6289.852549 7587.928014,6286.402170 7590.844146,6287.860001 7589.143453,6291.221903 7595.164934,6294.236968 7597.288129,6290.244654 7598.590389,6290.929428 7600.135540,6288.020901 7596.885460,6286.320018 7598.097127,6284.041855 7599.332605,6284.693498 7600.711011,6282.094625 7595.835891,6279.543299 7596.602911,6278.105623 7595.979606,6277.774276 7598.936504,6272.189468 7600.739628,6273.128262 7599.138893,6276.136322 7601.787934,6277.527960 7602.921786,6275.393565 7603.656394,6275.780132 7603.378488,6276.299908 7605.281787,6277.293929 7603.558781,6280.545283 7606.753207,6282.213029 7607.331251,6281.129242 7610.303078,6282.697603 7611.492514,6280.463676 7613.406946,6281.468747 7615.696882,6277.155723 7614.172017,6276.360508 7615.783862,6273.319275 7619.634987,6275.340461 7622.703053,6269.556587 7618.607062,6267.413916 7619.540828,6265.666586 7616.491093,6264.065098 7614.178920,6268.411301 7612.787618,6267.682350 7613.654674,6266.034558 7610.616071,6264.444121 7609.048688,6267.396883 7607.824343,6266.756291 7607.068438,6268.171849 7601.981839,6265.510077 7602.515416,6264.503705 7602.916111,6264.713554 7603.371878,6263.862007 7604.384746,6264.392152 7605.185114,6262.888123 7608.479715,6264.611095 7610.024867,6261.702568 7607.943477,6260.609139 7608.799417,6258.983464 7613.485320,6261.435388 7615.052697,6258.471570 7613.026962,6257.411278 7615.116806,6253.474262 7609.306727,6250.425917 7607.250235,6254.307635 7603.911113,6252.562575 7604.644787,6251.191252 7600.704620,6249.125889 7599.659703,6251.105453 7597.455878,6249.945753 7595.999663,6252.699450 7594.964535,6252.158260 7593.163713,6255.553383 7596.569617,6257.331575 7595.191211,6259.930448 7593.766515,6259.179403"/>
    <poly id="102743538" type="building.residential" color="255,230,230" fill="1" layer="-1.00" shape="7673.038902,6345.572413 7677.478369,6344.950923 7677.757568,6346.863448 7681.996755,6346.264176 7682.443533,6349.436985 7680.819070,6349.670022 7681.142972,6351.947368 7682.945460,6351.692124 7683.526242,6355.760391 7682.068677,6355.971228 7682.426055,6358.425451 7678.587422,6358.969231 7678.777274,6360.262671 7675.461583,6360.728782 7674.880812,6356.682627 7672.978184,6356.948980 7671.631433,6356.297396 7669.486178,6360.654566 7661.839743,6356.943843 7663.051315,6354.488787 7661.259354,6353.616322 7663.248998,6349.579856 7665.174522,6350.518586 7666.352747,6348.129882 7664.750003,6347.356820 7665.761502,6345.310939 7664.793179,6344.847105 7662.914679,6348.640281 7658.796506,6346.630294 7660.952889,6342.273118 7660.051347,6341.842417 7658.750857,6344.485471 7656.947763,6343.601956 7655.891814,6345.758421 7657.628127,6346.608803 7655.660703,6350.578921 7653.801960,6349.673324 7652.746006,6351.818733 7645.433466,6348.251560 7647.334179,6344.380980 7646.132118,6343.795655 7645.341098,6341.949738 7641.736802,6343.742712 7640.188472,6340.669991 7641.045046,6340.238355 7639.429882,6337.032998 7642.110858,6335.704864 7641.342257,6334.168500 7644.657320,6332.519407 7645.325658,6333.834706 7647.328045,6332.838609 7646.537171,6331.269090 7649.474000,6329.797093 7651.401051,6333.610359 7653.014088,6332.813476 7655.275300,6337.267807 7658.803661,6339.156493 7659.470648,6337.928932 7655.975668,6336.040228 7658.032217,6332.269069 7648.660343,6327.232553 7649.960975,6324.854840 7652.977340,6326.478457 7654.166798,6324.288754 7651.061398,6322.632017 7652.639925,6319.712417 7653.663931,6320.264669 7654.975667,6317.842727 7655.810456,6318.295576 7656.277351,6317.444022 7658.436666,6318.603746 7659.670581,6316.314516 7662.753727,6317.971265 7660.819467,6321.532296 7663.657741,6323.056504 7665.992203,6318.776626 7671.824581,6321.913406 7669.745801,6325.728800 7670.925630,6326.358360 7668.846850,6330.173755 7666.943540,6329.157622 7665.943057,6330.993435 7670.884992,6333.644228 7671.996636,6331.598294 7669.915236,6330.482753 7671.871734,6326.888541 7673.073824,6327.529146 7675.230413,6323.558927 7680.973743,6326.640475 7678.783807,6330.677047 7681.711123,6332.245431 7683.756557,6328.496390 7686.817436,6330.131039 7685.605734,6332.342865 7687.954265,6333.601991 7687.565186,6334.309776 7688.299799,6334.707399 7687.099225,6336.919219 7688.590707,6337.714452 7686.878776,6340.866297 7683.751110,6339.187460 7682.650575,6341.200221 7685.922938,6342.956372 7684.388867,6345.776445 7672.779772,6339.547079 7670.623183,6343.517297 7666.315687,6341.208901 7665.659811,6342.403288 7669.844877,6344.656470 7673.038902,6345.572413"/>
    <poly id="102743539" type="building.residential" color="255,230,230" fill="1" layer="-1.00" shape="7608.638966,6313.013806 7606.500442,6309.101149 7604.787323,6310.019700 7602.737912,6306.283890 7599.912385,6307.811108 7600.692061,6309.247963 7598.656345,6310.343581 7597.787568,6308.751991 7594.149977,6310.710821 7594.851685,6312.003990 7592.660228,6313.177082 7594.498033,6316.559215 7593.341127,6317.190018 7594.933885,6320.107933 7598.549227,6318.160170 7599.473687,6319.840177 7600.798201,6320.524940 7598.552776,6324.837941 7606.110290,6328.725605 7607.377510,6326.292630 7609.147240,6327.209331 7611.225926,6323.217040 7609.322633,6322.234076 7610.556513,6319.878510 7612.125892,6320.684757 7613.181918,6318.672020 7614.139131,6319.169027 7612.182716,6322.918022 7616.256423,6325.005425 7618.501854,6320.703480 7619.381152,6321.156305 7618.025007,6323.766222 7619.805864,6324.682916 7618.694268,6326.817299 7616.980192,6325.933737 7614.934853,6329.859674 7616.771364,6330.809506 7615.659762,6332.932833 7622.905615,6336.643768 7624.895370,6332.817364 7626.086316,6333.424806 7628.066736,6332.970461 7628.758721,6336.905999 7632.174494,6336.318220 7632.007085,6335.378556 7635.556368,6334.757539 7635.042948,6331.816938 7636.734147,6331.528586 7636.097957,6327.891528 7634.629287,6328.146595 7634.249795,6325.957726 7635.996618,6325.647232 7635.427416,6322.430263 7631.188298,6323.162206 7630.886921,6321.393420 7625.935720,6322.247357 7622.307317,6320.557731 7622.896389,6319.285987 7626.502531,6320.964570 7628.336469,6317.071913 7637.986233,6321.555486 7639.142169,6319.100459 7636.025752,6317.653790 7637.092781,6315.408873 7640.287112,6316.899724 7641.698689,6313.902821 7640.641330,6313.405867 7641.819503,6310.917660 7640.951361,6310.520108 7641.362607,6309.646473 7639.147726,6308.619450 7640.259206,6306.263949 7637.087135,6304.784143 7635.364352,6308.455621 7632.437147,6307.097300 7634.515610,6302.684885 7628.494254,6299.901995 7626.649206,6303.827825 7625.436029,6303.264618 7623.590982,6307.190448 7625.549876,6308.107048 7624.660696,6309.998082 7619.563130,6307.634825 7620.563466,6305.522614 7622.700438,6306.516510 7624.445464,6302.822908 7623.210027,6302.248657 7625.132878,6298.156947 7619.222812,6295.407165 7617.266614,6299.565228 7614.250367,6298.162730 7616.073189,6294.292191 7612.923384,6292.834484 7611.856373,6295.112570 7609.441147,6293.986150 7609.096588,6294.716023 7608.339743,6294.362636 7607.272731,6296.640722 7605.736786,6295.933960 7604.202938,6299.174158 7607.419525,6300.664997 7606.441426,6302.744029 7603.080143,6301.175875 7601.713029,6304.084308 7613.666712,6309.628024 7611.743862,6313.719734 7616.173631,6315.784836 7615.595663,6317.012349 7611.288329,6315.013518 7608.638966,6313.013806"/>
    <poly id="102743541" type="building.residential" color="255,230,230" fill="1" layer="-1.00" shape="7610.592999,6200.065541 7605.686674,6201.615975 7605.162827,6199.991034 7601.224409,6201.220332 7601.781691,6202.944759 7598.054662,6204.118666 7599.135932,6207.733376 7600.704661,6207.312418 7601.986405,6211.269754 7605.769046,6210.051595 7605.200607,6208.271894 7607.614836,6207.518810 7608.016089,6208.778971 7609.173629,6209.342208 7608.562267,6210.547627 7612.858538,6212.668081 7610.946672,6216.494443 7614.808860,6218.394009 7616.387259,6215.231179 7617.912101,6215.982171 7619.846193,6212.100518 7617.898402,6211.139688 7618.832104,6209.270742 7623.874093,6211.744589 7622.829235,6213.834712 7620.714487,6212.785523 7618.891551,6216.445999 7620.115879,6217.053424 7618.103978,6221.089902 7623.947351,6223.972391 7626.003720,6219.858499 7628.975494,6221.327357 7627.074755,6225.153713 7630.191219,6226.688830 7631.313880,6224.432827 7633.695748,6225.603489 7634.062568,6224.884660 7634.808292,6225.249109 7635.930952,6222.993106 7637.444666,6223.744104 7639.045297,6220.537039 7635.862051,6218.968790 7636.884672,6216.911847 7640.212614,6218.557411 7641.646517,6215.693168 7629.815081,6209.861929 7631.826982,6205.825451 7627.441675,6203.671877 7628.053026,6202.444346 7632.315903,6204.542706 7634.920787,6206.597722 7636.970320,6210.565707 7638.705706,6209.669257 7640.666127,6213.460394 7643.525066,6211.988439 7642.778767,6210.540511 7644.836762,6209.489106 7645.672162,6211.091770 7649.354305,6209.210309 7648.674846,6207.906072 7650.899710,6206.777188 7649.128648,6203.350795 7650.296699,6202.753156 7648.770689,6199.802037 7645.110795,6201.672430 7644.230833,6199.970286 7642.917434,6199.263405 7645.251904,6194.994583 7637.783327,6190.952084 7636.471577,6193.351914 7634.712957,6192.402039 7632.556348,6196.339090 7634.437410,6197.366291 7633.147880,6199.699774 7631.589604,6198.849296 7630.500190,6200.850995 7629.554092,6200.331869 7631.588424,6196.627058 7627.559173,6194.440126 7625.224697,6198.697893 7624.345387,6198.222956 7625.768315,6195.646172 7624.009694,6194.696297 7625.154686,6192.584010 7626.857659,6193.511802 7628.992037,6189.618987 7627.177762,6188.635974 7628.322760,6186.534742 7621.165841,6182.668973 7619.087041,6186.451199 7617.918332,6185.810577 7615.926765,6186.231759 7615.323794,6182.285118 7611.896851,6182.795510 7612.042011,6183.746241 7608.481551,6184.278816 7608.928211,6187.230508 7607.225867,6187.485698 7607.784170,6191.133854 7609.263986,6190.911950 7609.598974,6193.111899 7607.840999,6193.378174 7608.343443,6196.606235 7612.582610,6195.962740 7612.861738,6197.742594 7617.813018,6197.032386 7621.419173,6198.733082 7620.818967,6199.993775 7617.179425,6198.282041 7615.289883,6202.241062 7610.592999,6200.065541"/>
    <poly id="102743543" type="building.residential" color="255,230,230" fill="1" layer="-1.00" shape="7695.414318,6237.798554 7697.586210,6241.689082 7699.299317,6240.748420 7701.370975,6244.473162 7704.185363,6242.923840 7703.394567,6241.498048 7705.419145,6240.380326 7706.299042,6241.960854 7709.925494,6239.979921 7709.212665,6238.697813 7711.392984,6237.502617 7709.521806,6234.131558 7710.678706,6233.489701 7709.063708,6230.593910 7705.459504,6232.563775 7704.535051,6230.894823 7703.188288,6230.221128 7705.400323,6225.886036 7697.820593,6222.064715 7696.575631,6224.508732 7694.794780,6223.603093 7692.749479,6227.606419 7694.652766,6228.578328 7693.441145,6230.944937 7691.860644,6230.149750 7690.826878,6232.173531 7689.869671,6231.687579 7691.792694,6227.916492 7687.696752,6225.862267 7685.484712,6230.186303 7684.605414,6229.733478 7685.939300,6227.112518 7684.158454,6226.217935 7685.247792,6224.072510 7686.972989,6224.945011 7688.984937,6220.996982 7687.137305,6220.058211 7688.226654,6217.934897 7680.958576,6214.279249 7678.991079,6218.116695 7677.800139,6217.520308 7675.830857,6217.996758 7675.105492,6214.061238 7671.700863,6214.682177 7671.868272,6215.621841 7668.318999,6216.264968 7668.865793,6219.194494 7667.163479,6219.504964 7667.833043,6223.130948 7669.301707,6222.864826 7669.703459,6225.064739 7667.956635,6225.375232 7668.548091,6228.592189 7672.776065,6227.827086 7673.099696,6229.595860 7678.039748,6228.697708 7681.690387,6230.354156 7681.101320,6231.636955 7677.484069,6229.991545 7675.683516,6233.895238 7666.000412,6229.489071 7664.866735,6231.955141 7667.983134,6233.368643 7666.949492,6235.624598 7663.732924,6234.166926 7662.354734,6237.174866 7663.400954,6237.649714 7662.256167,6240.148959 7663.124309,6240.546511 7662.713062,6241.420146 7664.939065,6242.436108 7663.849845,6244.802652 7667.033025,6246.249286 7668.733549,6242.566764 7671.660743,6243.902975 7669.626793,6248.326420 7675.659252,6251.065082 7677.482035,6247.117154 7678.695206,6247.669305 7680.517995,6243.732433 7678.547985,6242.837950 7679.426033,6240.935867 7684.534702,6243.254895 7683.556626,6245.378150 7681.408532,6244.395314 7679.696899,6248.111010 7680.932330,6248.674205 7679.042865,6252.776952 7684.975160,6255.482500 7686.897972,6251.313400 7689.925334,6252.693782 7688.135898,6256.575357 7691.296817,6258.010947 7692.352696,6255.721813 7694.767910,6256.826121 7695.101342,6256.096254 7695.869308,6256.438579 7696.914060,6254.149451 7698.461132,6254.856208 7699.961587,6251.593917 7696.733886,6250.125195 7697.689731,6248.046176 7701.073250,6249.581151 7702.418111,6246.672733 7690.419969,6241.217483 7692.309429,6237.103680 7687.857430,6235.082812 7688.435393,6233.844243 7692.753834,6235.809903 7695.414318,6237.798554"/>
    <poly id="102743544" type="building.residential" color="255,230,230" fill="1" layer="-1.00" shape="7599.135932,6207.733376 7597.991029,6210.011502 7596.443920,6209.238410 7592.453413,6217.145510 7591.763337,6216.803143 7595.865006,6208.685922 7592.626100,6207.073479 7590.880955,6210.545963 7589.645494,6209.927488 7591.801897,6205.603480 7595.662072,6203.710868 7594.915749,6202.218716 7598.842664,6200.281845 7597.439119,6197.452276 7595.814953,6198.249164 7594.611923,6195.839614 7596.180464,6195.064867 7594.587560,6191.870553 7593.197009,6192.556758 7591.960556,6190.069834 7588.656606,6191.696809 7588.255588,6190.878884 7584.684647,6192.627615 7586.377802,6196.020882 7585.198582,6196.541137 7584.376059,6198.233129 7580.090950,6196.179005 7576.434062,6203.710026 7578.582181,6204.737085 7577.737427,6206.473313 7581.699762,6208.372825 7582.577862,6206.570244 7585.048755,6207.751915 7584.215111,6209.454969 7586.596962,6210.592463 7586.241281,6211.333398 7581.755821,6209.168821 7579.599477,6213.603389 7583.828938,6215.635431 7583.417686,6216.498011 7581.258434,6215.459902 7580.413668,6217.174018 7577.786952,6215.915039 7578.942918,6213.515291 7575.125274,6211.682037 7574.169364,6213.639442 7572.088021,6212.634459 7568.408903,6220.209717 7572.059591,6221.954612 7571.292723,6223.679742 7571.660964,6225.636444 7567.666651,6226.379313 7568.313833,6229.762079 7569.426453,6229.551426 7570.151749,6233.354276 7572.844296,6232.855329 7573.056320,6233.993975 7577.262028,6233.206770 7576.960745,6231.614879 7579.007965,6231.226834 7579.309260,6232.840837 7582.257705,6232.286475 7581.487765,6228.229363 7583.735259,6227.808044 7582.943005,6223.640385 7584.565097,6218.940759 7586.021290,6216.142838 7587.624064,6216.971180 7585.556492,6220.941353 7588.550556,6222.476534 7590.206829,6219.280495 7591.108388,6219.744364 7583.316093,6234.718214 7586.354678,6236.275484 7587.966506,6233.201083 7589.702843,6234.095689 7588.091027,6237.192202 7591.363351,6238.870963 7591.996950,6237.632364 7594.356587,6238.847261 7594.745649,6238.106307 7595.602688,6238.548089 7596.903256,6236.048761 7599.140463,6237.208443 7600.685592,6234.255693 7596.879010,6232.300818 7598.401908,6229.392304 7602.375446,6231.435537 7605.421217,6225.574284 7601.458812,6223.542101 7602.025730,6222.458320 7598.374978,6220.591809 7597.129981,6222.969493 7595.015210,6221.876080 7597.660809,6216.788954 7599.697660,6217.827128 7599.030697,6219.098912 7602.848411,6221.064837 7603.537600,6219.737761 7605.952891,6220.985797 7607.809262,6217.424806 7603.334859,6215.127553 7604.335296,6213.203292 7601.686272,6211.844821 7601.986405,6211.269754 7600.704661,6207.312418 7599.135932,6207.733376"/>
    <poly id="102745701" type="building.residential" color="255,230,230" fill="1" layer="-1.00" shape="7649.356007,6254.318435 7652.968255,6246.544209 7651.521352,6245.881623 7652.555006,6243.647779 7654.068691,6244.343498 7655.357973,6241.545667 7652.197047,6240.099021 7652.786114,6238.816223 7655.991561,6240.284957 7657.191931,6237.686180 7655.199660,6236.780653 7656.233326,6234.568921 7659.082611,6235.872006 7660.560841,6232.665006 7659.447834,6232.145969 7661.081682,6228.629321 7658.065446,6227.248934 7658.799015,6225.678605 7655.593568,6224.209870 7653.559606,6228.611204 7645.824239,6225.066364 7647.469196,6221.516542 7644.185846,6220.025737 7643.285567,6221.972056 7640.091253,6220.514372 7637.145891,6226.873087 7639.639014,6228.010522 7638.783191,6229.857314 7636.824308,6228.962825 7634.134570,6234.746497 7635.881981,6235.541594 7634.814986,6237.852847 7633.167744,6237.101920 7629.555507,6244.898258 7632.338017,6246.179266 7631.615564,6247.727478 7635.132652,6249.339773 7636.799841,6245.745715 7639.281836,6246.883156 7642.349463,6240.270090 7645.065191,6241.517966 7642.019796,6248.086796 7644.412749,6249.180061 7642.745573,6252.796230 7646.184752,6254.375399 7646.762715,6253.136830 7649.356007,6254.318435"/>
    <poly id="102745703" type="building.residential" color="255,230,230" fill="1" layer="-1.00" shape="7695.825197,6278.141357 7699.682310,6270.488618 7701.095848,6271.184390 7702.207411,6268.983673 7700.715964,6268.254775 7702.105416,6265.501115 7705.221885,6267.047288 7705.855472,6265.786578 7702.694482,6264.218317 7703.983894,6261.663717 7705.942817,6262.635597 7707.043265,6260.456998 7704.238443,6259.065442 7705.827975,6255.913664 7706.929866,6256.454818 7708.675011,6252.982336 7711.635656,6254.451200 7712.413746,6252.902959 7715.574736,6254.471220 7713.396084,6258.806294 7721.020298,6262.583368 7722.776559,6259.088767 7725.993202,6260.690167 7725.026142,6262.603353 7728.176004,6264.171620 7725.030297,6270.430935 7722.570516,6269.216091 7721.659040,6271.029744 7723.584575,6271.990586 7720.716753,6277.685903 7719.002695,6276.835508 7717.857791,6279.113633 7719.482807,6279.919852 7715.614578,6287.594708 7712.876538,6286.236285 7712.109564,6287.762408 7708.636934,6286.050586 7710.415424,6282.511750 7707.966770,6281.296900 7711.245869,6274.783227 7708.563483,6273.457942 7705.306615,6279.927380 7702.958131,6278.756700 7701.168525,6282.317654 7697.773797,6280.627902 7698.385153,6279.411427 7695.825197,6278.141357"/>