<?xml version="1.0" encoding="UTF-8"?>

<!-- generated on Sat May  1 22:26:34 2021 by Eclipse SUMO duarouter Version 1.9.0
<configuration xmlns:xsi="http://www.w3.org/2001/XMLSchema-instance" xsi:noNamespaceSchemaLocation="http://sumo.dlr.de/xsd/duarouterConfiguration.xsd">

    <input>
        <net-file value="C:\Users\ethan\Sumo\2021-05-01-22-25-37\osm.net.xml"/>
        <route-files value="C:\Users\ethan\Sumo\2021-05-01-22-25-37\osm.passenger.trips.xml"/>
    </input>

    <output>
        <output-file value="C:\Users\ethan\Sumo\2021-05-01-22-25-37\osm.passenger.trips.xml.tmp"/>
        <write-trips value="true"/>
    </output>

    <time>
        <begin value="0"/>
        <end value="3600"/>
    </time>

    <report>
        <no-warnings value="true"/>
        <ignore-errors value="true"/>
        <no-step-log value="true"/>
    </report>

</configuration>
-->

<routes xmlns:xsi="http://www.w3.org/2001/XMLSchema-instance" xsi:noNamespaceSchemaLocation="http://sumo.dlr.de/xsd/routes_file.xsd">
    <vType id="veh_passenger" vClass="passenger"/>
    <trip id="veh0" type="veh_passenger" depart="0.00" departLane="best" from="637957161" to="-632712182"/>
    <trip id="veh1" type="veh_passenger" depart="0.39" departLane="best" from="32877553-AddedOnRampEdge" to="22885268"/>
    <trip id="veh2" type="veh_passenger" depart="0.78" departLane="best" from="646226502" to="640191203#1"/>
    <!-- <trip id="veh3" type="veh_passenger" depart="1.17" departLane="best" from="713421971#1" to="-646726205"/>
    <trip id="veh4" type="veh_passenger" depart="1.56" departLane="best" departSpeed="max" from="503519954" to="-635371943"/>
    <trip id="veh5" type="veh_passenger" depart="1.95" departLane="best" from="22885268" to="630390358#1"/>
    <trip id="veh6" type="veh_passenger" depart="2.35" departLane="best" from="-632690146#0" to="175959437#0"/>
    <trip id="veh7" type="veh_passenger" depart="2.74" departLane="best" from="639605705" to="632404322#1"/>
    <trip id="veh8" type="veh_passenger" depart="3.13" departLane="best" from="22885366#0" to="634940240"/>
    <trip id="veh9" type="veh_passenger" depart="3.52" departLane="best" from="655132607" to="-22733412#2"/>
    <trip id="veh10" type="veh_passenger" depart="3.91" departLane="best" from="654987962#1" to="642664813#1"/>
    <trip id="veh11" type="veh_passenger" depart="4.30" departLane="best" from="479742394" to="146658741#1"/>
    <trip id="veh12" type="veh_passenger" depart="4.69" departLane="best" from="75423513" to="479365906"/>
    <trip id="veh13" type="veh_passenger" depart="5.08" departLane="best" from="-646950157#1" to="-664037900"/>
    <trip id="veh14" type="veh_passenger" depart="5.47" departLane="best" from="671739605#3" to="635338458"/>
    <trip id="veh15" type="veh_passenger" depart="5.86" departLane="best" from="655000281" to="645270183#1"/>
    <trip id="veh16" type="veh_passenger" depart="6.26" departLane="best" from="632390289#2" to="755057869#3"/>
    <trip id="veh17" type="veh_passenger" depart="6.65" departLane="best" from="482047358#1" to="632686343"/>
    <trip id="veh18" type="veh_passenger" depart="7.04" departLane="best" from="656675298#1" to="635634181#2"/>
    <trip id="veh19" type="veh_passenger" depart="7.43" departLane="best" from="701146101#0" to="633571299"/>
    <trip id="veh20" type="veh_passenger" depart="7.82" departLane="best" from="644239661#1" to="-643444667#0"/>
    <trip id="veh21" type="veh_passenger" depart="8.21" departLane="best" from="22887333#0" to="383209592"/>
    <trip id="veh22" type="veh_passenger" depart="8.60" departLane="best" from="-646634681" to="22887334"/>
    <trip id="veh23" type="veh_passenger" depart="8.99" departLane="best" from="-664309371" to="325024328#0"/>
    <trip id="veh24" type="veh_passenger" depart="9.38" departLane="best" from="636912115" to="481621512#0"/>
    <trip id="veh25" type="veh_passenger" depart="9.77" departLane="best" from="481651355" to="200159358#0"/>
    <trip id="veh26" type="veh_passenger" depart="10.17" departLane="best" from="265150808" to="747390002"/>
    <trip id="veh27" type="veh_passenger" depart="10.56" departLane="best" from="639551507" to="635391879#0"/>
    <trip id="veh28" type="veh_passenger" depart="10.95" departLane="best" from="173767749#1" to="645270173"/>
    <trip id="veh29" type="veh_passenger" depart="11.34" departLane="best" from="173767592#1" to="482041730"/>
    <trip id="veh30" type="veh_passenger" depart="11.73" departLane="best" from="822485836#1" to="636854776#0"/>
    <trip id="veh31" type="veh_passenger" depart="12.12" departLane="best" from="632768098" to="641096878#1"/>
    <trip id="veh32" type="veh_passenger" depart="12.51" departLane="best" from="668815335" to="647454855"/>
    <trip id="veh33" type="veh_passenger" depart="12.90" departLane="best" from="22887510" to="-636854776#0"/>
    <trip id="veh34" type="veh_passenger" depart="13.29" departLane="best" from="465500917" to="251589103"/>
    <trip id="veh35" type="veh_passenger" depart="13.68" departLane="best" from="223860430" to="74939755#0"/>
    <trip id="veh36" type="veh_passenger" depart="14.07" departLane="best" from="709592302" to="452645236#1"/>
    <trip id="veh37" type="veh_passenger" depart="14.47" departLane="best" from="639857011#1" to="482078546"/>
    <trip id="veh38" type="veh_passenger" depart="14.86" departLane="best" from="737226991" to="538824799#0"/>
    <trip id="veh39" type="veh_passenger" depart="15.25" departLane="best" from="265150726-AddedOnRampEdge" to="251582007#0"/>
    <trip id="veh40" type="veh_passenger" depart="15.64" departLane="best" from="633016088" to="251582117"/>
    <trip id="veh41" type="veh_passenger" depart="16.03" departLane="best" from="635250643" to="712207570"/>
    <trip id="veh42" type="veh_passenger" depart="16.42" departLane="best" from="482087544" to="22733411#3"/>
    <trip id="veh43" type="veh_passenger" depart="16.81" departLane="best" from="87936189#5" to="631457896#0"/>
    <trip id="veh44" type="veh_passenger" depart="17.20" departLane="best" from="-646838050#0" to="-643749101#1"/>
    <trip id="veh45" type="veh_passenger" depart="17.59" departLane="best" from="-670247216" to="635723481#0"/>
    <trip id="veh46" type="veh_passenger" depart="17.98" departLane="best" from="652550418#1" to="493838352#0"/>
    <trip id="veh47" type="veh_passenger" depart="18.38" departLane="best" from="-645335654#0" to="482047353"/>
    <trip id="veh48" type="veh_passenger" depart="18.77" departLane="best" from="845013688" to="632083260#1"/>
    <trip id="veh49" type="veh_passenger" depart="19.16" departLane="best" from="75501993" to="696925150"/>
    <trip id="veh50" type="veh_passenger" depart="19.55" departLane="best" from="-22904193" to="644987910#0"/>
    <trip id="veh51" type="veh_passenger" depart="19.94" departLane="best" departSpeed="max" from="641454814#0" to="632368644"/>
    <trip id="veh52" type="veh_passenger" depart="20.33" departLane="best" from="265150807" to="636868750#1"/>
    <trip id="veh53" type="veh_passenger" depart="20.72" departLane="best" from="-671739605#5" to="526345584#1"/>
    <trip id="veh54" type="veh_passenger" depart="21.11" departLane="best" from="538810642#3" to="75338382#1"/>
    <trip id="veh55" type="veh_passenger" depart="21.50" departLane="best" from="709581086#1" to="251582119"/>
    <trip id="veh56" type="veh_passenger" depart="21.89" departLane="best" from="630409404" to="173896183#0"/>
    <trip id="veh57" type="veh_passenger" depart="22.29" departLane="best" from="736751617#6" to="701313465"/>
    <trip id="veh58" type="veh_passenger" depart="22.68" departLane="best" from="44776075" to="636850501"/>
    <trip id="veh59" type="veh_passenger" depart="23.07" departLane="best" from="635584310" to="135977023#0"/>
    <trip id="veh60" type="veh_passenger" depart="23.46" departLane="best" from="646733281" to="632376522#4"/>
    <trip id="veh61" type="veh_passenger" depart="23.85" departLane="best" from="649563693" to="632097390"/>
    <trip id="veh62" type="veh_passenger" depart="24.24" departLane="best" from="-106857880#1" to="465523234#0"/>
    <trip id="veh63" type="veh_passenger" depart="24.63" departLane="best" from="-482519381#3" to="745543292#0"/>
    <trip id="veh64" type="veh_passenger" depart="25.02" departLane="best" from="709881788" to="656456702#0"/>
    <trip id="veh65" type="veh_passenger" depart="25.41" departLane="best" from="450554397" to="-645174199"/>
    <trip id="veh66" type="veh_passenger" depart="25.80" departLane="best" from="709881786" to="75046507"/>
    <trip id="veh67" type="veh_passenger" depart="26.19" departLane="best" from="-646669969#2" to="539771062#0"/>
    <trip id="veh68" type="veh_passenger" depart="26.59" departLane="best" from="-646201676" to="646662799"/>
    <trip id="veh69" type="veh_passenger" depart="26.98" departLane="best" from="646838048" to="-750636595#2"/>
    <trip id="veh70" type="veh_passenger" depart="27.37" departLane="best" from="539643362#1" to="632442406"/>
    <trip id="veh71" type="veh_passenger" depart="27.76" departLane="best" from="265150726-AddedOnRampEdge" to="70585696"/>
    <trip id="veh72" type="veh_passenger" depart="28.15" departLane="best" from="503948418#3" to="223860418#0"/>
    <trip id="veh73" type="veh_passenger" depart="28.54" departLane="best" departSpeed="max" from="632403723" to="645284347"/>
    <trip id="veh74" type="veh_passenger" depart="28.93" departLane="best" from="176204398#0" to="44817060-AddedOnRampEdge"/>
    <trip id="veh75" type="veh_passenger" depart="29.32" departLane="best" from="826838089" to="638914476#1"/>
    <trip id="veh76" type="veh_passenger" depart="29.71" departLane="best" from="533892782#1" to="631549246#0"/>
    <trip id="veh77" type="veh_passenger" depart="30.10" departLane="best" from="-711816248" to="22885320"/>
    <trip id="veh78" type="veh_passenger" depart="30.50" departLane="best" from="479562489#1" to="634906816#0"/>
    <trip id="veh79" type="veh_passenger" depart="30.89" departLane="best" from="22903989" to="22752250#1"/>
    <trip id="veh80" type="veh_passenger" depart="31.28" departLane="best" from="-646226504" to="635749290"/>
    <trip id="veh81" type="veh_passenger" depart="31.67" departLane="best" from="22887509" to="723536165"/>
    <trip id="veh82" type="veh_passenger" depart="32.06" departLane="best" from="699889826" to="-646265600"/>
    <trip id="veh83" type="veh_passenger" depart="32.45" departLane="best" from="251581975#0" to="639935831#0"/>
    <trip id="veh84" type="veh_passenger" depart="32.84" departLane="best" from="226204636" to="-759509986"/>
    <trip id="veh85" type="veh_passenger" depart="33.23" departLane="best" from="747390017" to="633247278#0"/>
    <trip id="veh86" type="veh_passenger" depart="33.62" departLane="best" from="539538359#1" to="649605845"/>
    <trip id="veh87" type="veh_passenger" depart="34.01" departLane="best" from="655000282#1" to="175014497"/>
    <trip id="veh88" type="veh_passenger" depart="34.41" departLane="best" from="-664030563" to="512870466"/>
    <trip id="veh89" type="veh_passenger" depart="34.80" departLane="best" from="512870242#1" to="539418281"/>
    <trip id="veh90" type="veh_passenger" depart="35.19" departLane="best" from="646132767" to="640026529#1"/>
    <trip id="veh91" type="veh_passenger" depart="35.58" departLane="best" from="795211464" to="-664070760#0"/>
    <trip id="veh92" type="veh_passenger" depart="35.97" departLane="best" from="482088811" to="479552276#1"/>
    <trip id="veh93" type="veh_passenger" depart="36.36" departLane="best" from="701146101#0" to="251582019"/>
    <trip id="veh94" type="veh_passenger" depart="36.75" departLane="best" from="175845934#2" to="537120339#0"/>
    <trip id="veh95" type="veh_passenger" depart="37.14" departLane="best" departSpeed="max" from="503519954" to="325024339#1"/>
    <trip id="veh96" type="veh_passenger" depart="37.53" departLane="best" from="251582054#0" to="741859526"/>
    <trip id="veh97" type="veh_passenger" depart="37.92" departLane="best" from="536655911" to="697834940"/>
    <trip id="veh98" type="veh_passenger" depart="38.31" departLane="best" from="632716930" to="-644272744"/>
    <trip id="veh99" type="veh_passenger" depart="38.71" departLane="best" from="98284572#0" to="660073260#1"/>
    <trip id="veh100" type="veh_passenger" depart="39.10" departLane="best" from="754817239" to="744548803"/>
    <trip id="veh101" type="veh_passenger" depart="39.49" departLane="best" from="673267918" to="173767618"/>
    <trip id="veh102" type="veh_passenger" depart="39.88" departLane="best" from="540508674#2" to="223860427#1"/>
    <trip id="veh103" type="veh_passenger" depart="40.27" departLane="best" from="482088088#0" to="-645220634"/>
    <trip id="veh104" type="veh_passenger" depart="40.66" departLane="best" from="482047359" to="796737412"/>
    <trip id="veh105" type="veh_passenger" depart="41.05" departLane="best" from="265150727" to="649598123"/>
    <trip id="veh106" type="veh_passenger" depart="41.44" departLane="best" from="539184143#1" to="493838353"/>
    <trip id="veh107" type="veh_passenger" depart="41.83" departLane="best" from="75423569#1" to="826838090#1"/>
    <trip id="veh108" type="veh_passenger" depart="42.22" departLane="best" from="632737520#1" to="644721650"/>
    <trip id="veh109" type="veh_passenger" depart="42.62" departLane="best" from="146660825#1" to="391434121#1"/>
    <trip id="veh110" type="veh_passenger" depart="43.01" departLane="best" from="754809402#1" to="633574842"/>
    <trip id="veh111" type="veh_passenger" depart="43.40" departLane="best" from="632416589" to="646285729"/>
    <trip id="veh112" type="veh_passenger" depart="43.79" departLane="best" from="-644721648" to="633802463"/>
    <trip id="veh113" type="veh_passenger" depart="44.18" departLane="best" from="631457895" to="671428531#1"/>
    <trip id="veh114" type="veh_passenger" depart="44.57" departLane="best" from="15775493" to="75435056-AddedOnRampEdge"/>
    <trip id="veh115" type="veh_passenger" depart="44.96" departLane="best" from="-646635936#0" to="173896236"/>
    <trip id="veh116" type="veh_passenger" depart="45.35" departLane="best" from="635333336" to="640174122#0"/>
    <trip id="veh118" type="veh_passenger" depart="46.13" departLane="best" from="711695941" to="251582005#1"/>
    <trip id="veh119" type="veh_passenger" depart="46.53" departLane="best" from="635327430#0" to="635638446"/>
    <trip id="veh120" type="veh_passenger" depart="46.92" departLane="best" from="493838353" to="633800290"/>
    <trip id="veh121" type="veh_passenger" depart="47.31" departLane="best" from="632083260#1" to="747247427#1"/>
    <trip id="veh122" type="veh_passenger" depart="47.70" departLane="best" from="194654916#1" to="644405729"/>
    <trip id="veh123" type="veh_passenger" depart="48.09" departLane="best" from="251581978#0" to="482078546"/>
    <trip id="veh125" type="veh_passenger" depart="48.87" departLane="best" from="465523225" to="646461503"/>
    <trip id="veh126" type="veh_passenger" depart="49.26" departLane="best" from="-646265600" to="538810644#1"/>
    <trip id="veh127" type="veh_passenger" depart="49.65" departLane="best" from="904058653" to="835406225#2"/>
    <trip id="veh128" type="veh_passenger" depart="50.04" departLane="best" from="-646270503" to="223860427#0"/>
    <trip id="veh129" type="veh_passenger" depart="50.43" departLane="best" from="265150727" to="747084867"/>
    <trip id="veh130" type="veh_passenger" depart="50.83" departLane="best" from="710052107" to="709498045"/>
    <trip id="veh131" type="veh_passenger" depart="51.22" departLane="best" from="481651351#1" to="155949888"/>
    <trip id="veh132" type="veh_passenger" depart="51.61" departLane="best" from="664070760#0" to="643747931#1"/>
    <trip id="veh133" type="veh_passenger" depart="52.00" departLane="best" from="635636642" to="800692462"/>
    <trip id="veh134" type="veh_passenger" depart="52.39" departLane="best" from="639856063#0" to="-22885866"/>
    <trip id="veh135" type="veh_passenger" depart="52.78" departLane="best" from="655532865#1" to="439478399#3"/>
    <trip id="veh136" type="veh_passenger" depart="53.17" departLane="best" from="640000612#0" to="747496066#1"/>
    <trip id="veh137" type="veh_passenger" depart="53.56" departLane="best" from="-767753897" to="-699681730"/>
    <trip id="veh138" type="veh_passenger" depart="53.95" departLane="best" from="-664945576#0" to="632694771"/>
    <trip id="veh139" type="veh_passenger" depart="54.34" departLane="best" from="325024328#0" to="635370012#0"/>
    <trip id="veh140" type="veh_passenger" depart="54.74" departLane="best" from="645153016" to="176204390#4"/>
    <trip id="veh141" type="veh_passenger" depart="55.13" departLane="best" from="636880513#0" to="251582121#1"/>
    <trip id="veh142" type="veh_passenger" depart="55.52" departLane="best" from="542547989#1" to="723536165"/>
    <trip id="veh143" type="veh_passenger" depart="55.91" departLane="best" from="670349600#3" to="-649245472"/>
    <trip id="veh144" type="veh_passenger" depart="56.30" departLane="best" from="512870242#1" to="325024311"/>
    <trip id="veh145" type="veh_passenger" depart="56.69" departLane="best" from="-163766151" to="646844362"/>
    <trip id="veh146" type="veh_passenger" depart="57.08" departLane="best" from="637042260#2" to="251582111#1"/>
    <trip id="veh147" type="veh_passenger" depart="57.47" departLane="best" from="646279824#1" to="632686343"/>
    <trip id="veh148" type="veh_passenger" depart="57.86" departLane="best" from="512870457#2" to="-22887510"/>
    <trip id="veh149" type="veh_passenger" depart="58.25" departLane="best" from="-646289047" to="709852440"/>
    <trip id="veh150" type="veh_passenger" depart="58.65" departLane="best" from="724474100" to="632406819"/>
    <trip id="veh151" type="veh_passenger" depart="59.04" departLane="best" from="664299326" to="633786772"/>
    <trip id="veh152" type="veh_passenger" depart="59.43" departLane="best" from="119885170" to="-747390010"/>
    <trip id="veh153" type="veh_passenger" depart="59.82" departLane="best" from="452242875#1" to="721625948"/>
    <trip id="veh154" type="veh_passenger" depart="60.21" departLane="best" from="654766268" to="696923532"/>
    <trip id="veh155" type="veh_passenger" depart="60.60" departLane="best" from="723389606#1" to="22071728#0"/>
    <trip id="veh156" type="veh_passenger" depart="60.99" departLane="best" from="251582051" to="-664337506"/>
    <trip id="veh157" type="veh_passenger" depart="61.38" departLane="best" from="649598123" to="709881786"/>
    <trip id="veh158" type="veh_passenger" depart="61.77" departLane="best" from="482092103#0" to="635647519#0"/>
    <trip id="veh159" type="veh_passenger" depart="62.16" departLane="best" from="146658741#1" to="74592153"/>
    <trip id="veh160" type="veh_passenger" depart="62.55" departLane="best" from="701832755#1" to="767753895#0"/>
    <trip id="veh161" type="veh_passenger" depart="62.95" departLane="best" from="655143167" to="709567667#0"/>
    <trip id="veh162" type="veh_passenger" depart="63.34" departLane="best" departSpeed="max" from="-580700290" to="646154245"/>
    <trip id="veh163" type="veh_passenger" depart="63.73" departLane="best" from="479370449" to="74592172#1"/>
    <trip id="veh164" type="veh_passenger" depart="64.12" departLane="best" from="654882142" to="699313829"/>
    <trip id="veh165" type="veh_passenger" depart="64.51" departLane="best" from="655143167" to="251582188#1"/>
    <trip id="veh166" type="veh_passenger" depart="64.90" departLane="best" from="652021784" to="-670117798#0"/>
    <trip id="veh167" type="veh_passenger" depart="65.29" departLane="best" from="709141518#1" to="689100290"/>
    <trip id="veh168" type="veh_passenger" depart="65.68" departLane="best" from="22885862#0" to="655224860#1"/>
    <trip id="veh169" type="veh_passenger" depart="66.07" departLane="best" from="539311821#1" to="44776100"/>
    <trip id="veh170" type="veh_passenger" depart="66.46" departLane="best" from="654744022" to="22885863"/>
    <trip id="veh172" type="veh_passenger" depart="67.25" departLane="best" departSpeed="max" from="479361798#0" to="699663306"/>
    <trip id="veh173" type="veh_passenger" depart="67.64" departLane="best" from="754776602" to="325024341#0"/>
    <trip id="veh174" type="veh_passenger" depart="68.03" departLane="best" from="638457914#0" to="482084331"/>
    <trip id="veh175" type="veh_passenger" depart="68.42" departLane="best" from="792746485" to="632363045"/>
    <trip id="veh176" type="veh_passenger" depart="68.81" departLane="best" from="74798117#1" to="-699663307"/>
    <trip id="veh177" type="veh_passenger" depart="69.20" departLane="best" from="75490159#1" to="173896183#0"/>
    <trip id="veh178" type="veh_passenger" depart="69.59" departLane="best" from="754477501#0" to="251582175#0"/>
    <trip id="veh179" type="veh_passenger" depart="69.98" departLane="best" from="-668576493" to="516824970#0"/>
    <trip id="veh180" type="veh_passenger" depart="70.37" departLane="best" from="646131898#0" to="450554396#1"/>
    <trip id="veh181" type="veh_passenger" depart="70.77" departLane="best" from="635479339" to="631504109"/>
    <trip id="veh182" type="veh_passenger" depart="71.16" departLane="best" from="482053322" to="633566702"/>
    <trip id="veh183" type="veh_passenger" depart="71.55" departLane="best" from="251582092" to="644051554#1"/>
    <trip id="veh184" type="veh_passenger" depart="71.94" departLane="best" from="-115096946#3" to="743181394#0"/>
    <trip id="veh185" type="veh_passenger" depart="72.33" departLane="best" departSpeed="max" from="632403723" to="644882075"/>
    <trip id="veh186" type="veh_passenger" depart="72.72" departLane="best" from="646281449" to="639973431#1"/>
    <trip id="veh187" type="veh_passenger" depart="73.11" departLane="best" from="640014563#0" to="479120533#1"/>
    <trip id="veh188" type="veh_passenger" depart="73.50" departLane="best" from="465458234" to="668611375#0"/>
    <trip id="veh189" type="veh_passenger" depart="73.89" departLane="best" from="645165891" to="44628807#1"/>
    <trip id="veh190" type="veh_passenger" depart="74.28" departLane="best" from="465270702#0" to="482089888"/>
    <trip id="veh191" type="veh_passenger" depart="74.68" departLane="best" from="482088807" to="390553512"/>
    <trip id="veh192" type="veh_passenger" depart="75.07" departLane="best" from="-745543292#0" to="482531033#0"/>
    <trip id="veh193" type="veh_passenger" depart="75.46" departLane="best" departSpeed="max" from="74798139" to="640252497#2"/>
    <trip id="veh194" type="veh_passenger" depart="75.85" departLane="best" from="724414776" to="635581635#0"/>
    <trip id="veh195" type="veh_passenger" depart="76.24" departLane="best" from="44786105#1" to="632413087"/>
    <trip id="veh196" type="veh_passenger" depart="76.63" departLane="best" from="-104127530#0" to="383209582#1"/>
    <trip id="veh197" type="veh_passenger" depart="77.02" departLane="best" from="512870468#0" to="633575700"/>
    <trip id="veh198" type="veh_passenger" depart="77.41" departLane="best" from="639856645#1" to="539328450"/>
    <trip id="veh199" type="veh_passenger" depart="77.80" departLane="best" from="536655903" to="223860427#1"/>
    <trip id="veh200" type="veh_passenger" depart="78.19" departLane="best" from="539643342" to="721886565"/>
    <trip id="veh201" type="veh_passenger" depart="78.58" departLane="best" from="654764396" to="173767738"/>
    <trip id="veh202" type="veh_passenger" depart="78.98" departLane="best" from="-646663523" to="631536506#1"/>
    <trip id="veh203" type="veh_passenger" depart="79.37" departLane="best" from="636863063" to="479365900#0"/>
    <trip id="veh204" type="veh_passenger" depart="79.76" departLane="best" from="655556491" to="646453495#1"/>
    <trip id="veh205" type="veh_passenger" depart="80.15" departLane="best" from="641064081#1" to="22885274#1"/>
    <trip id="veh206" type="veh_passenger" depart="80.54" departLane="best" from="176174503#1" to="-632690146#0"/>
    <trip id="veh207" type="veh_passenger" depart="80.93" departLane="best" from="251582022#1" to="539538357#0"/>
    <trip id="veh208" type="veh_passenger" depart="81.32" departLane="best" from="673528383" to="-646279827#1"/>
    <trip id="veh209" type="veh_passenger" depart="81.71" departLane="best" from="482522729" to="635744967"/>
    <trip id="veh211" type="veh_passenger" depart="82.49" departLane="best" from="582446975" to="251581978#1"/>
    <trip id="veh212" type="veh_passenger" depart="82.89" departLane="best" from="639864855#0" to="-190535812#0"/>
    <trip id="veh213" type="veh_passenger" depart="83.28" departLane="best" from="646646128" to="646837736"/>
    <trip id="veh215" type="veh_passenger" depart="84.06" departLane="best" from="173896157#1" to="75423571#0"/>
    <trip id="veh216" type="veh_passenger" depart="84.45" departLane="best" from="632039214" to="-644270865"/>
    <trip id="veh217" type="veh_passenger" depart="84.84" departLane="best" from="251582050" to="668611375#1"/>
    <trip id="veh218" type="veh_passenger" depart="85.23" departLane="best" from="539265993#3" to="654864035"/>
    <trip id="veh219" type="veh_passenger" depart="85.62" departLane="best" from="640181550" to="802807495"/>
    <trip id="veh220" type="veh_passenger" depart="86.01" departLane="best" from="635333985#1" to="75237305#0"/>
    <trip id="veh222" type="veh_passenger" depart="86.80" departLane="best" from="645165791" to="617971396#1"/>
    <trip id="veh223" type="veh_passenger" depart="87.19" departLane="best" from="658660966" to="632413087"/>
    <trip id="veh224" type="veh_passenger" depart="87.58" departLane="best" from="722309144" to="646232654"/>
    <trip id="veh225" type="veh_passenger" depart="87.97" departLane="best" from="539643356#1" to="251582091#0"/>
    <trip id="veh226" type="veh_passenger" depart="88.36" departLane="best" from="251582035#4" to="636841217#2"/>
    <trip id="veh227" type="veh_passenger" depart="88.75" departLane="best" from="646838048" to="631810329"/>
    <trip id="veh228" type="veh_passenger" depart="89.14" departLane="best" from="636809737#1" to="265150811#6"/>
    <trip id="veh229" type="veh_passenger" depart="89.53" departLane="best" from="-646461500" to="383209580#1"/>
    <trip id="veh230" type="veh_passenger" depart="89.92" departLane="best" from="325024313#0" to="465452703"/>
    <trip id="veh231" type="veh_passenger" depart="90.31" departLane="best" from="632410818" to="105865867#1"/>
    <trip id="veh232" type="veh_passenger" depart="90.70" departLane="best" from="22904186#0" to="642125601"/>
    <trip id="veh233" type="veh_passenger" depart="91.10" departLane="best" from="644275182#0" to="-646154244"/>
    <trip id="veh234" type="veh_passenger" depart="91.49" departLane="best" from="482103447" to="632390289#2"/>
    <trip id="veh235" type="veh_passenger" depart="91.88" departLane="best" from="482524703" to="190535816#0"/>
    <trip id="veh236" type="veh_passenger" depart="92.27" departLane="best" from="49967475#2" to="723389606#1"/>
    <trip id="veh237" type="veh_passenger" depart="92.66" departLane="best" from="635250004" to="642142067"/>
    <trip id="veh238" type="veh_passenger" depart="93.05" departLane="best" from="698304204#0" to="646715435"/>
    <trip id="veh239" type="veh_passenger" depart="93.44" departLane="best" from="482049275#1" to="-190535816#1"/>
    <trip id="veh240" type="veh_passenger" depart="93.83" departLane="best" from="480884474#0" to="646477372"/>
    <trip id="veh241" type="veh_passenger" depart="94.22" departLane="best" from="694531401#1" to="75334689"/>
    <trip id="veh242" type="veh_passenger" depart="94.61" departLane="best" from="493838353" to="646280697"/>
    <trip id="veh243" type="veh_passenger" depart="95.01" departLane="best" from="632694771" to="635333987"/>
    <trip id="veh244" type="veh_passenger" depart="95.40" departLane="best" from="22885366#1" to="22733411#3"/>
    <trip id="veh245" type="veh_passenger" depart="95.79" departLane="best" from="529888765" to="-635322515#1"/>
    <trip id="veh247" type="veh_passenger" depart="96.57" departLane="best" from="482089868#1" to="173767592#1"/>
    <trip id="veh248" type="veh_passenger" depart="96.96" departLane="best" from="539519074" to="-747390010"/>
    <trip id="veh249" type="veh_passenger" depart="97.35" departLane="best" from="635744967" to="-633563766#2"/>
    <trip id="veh250" type="veh_passenger" depart="97.74" departLane="best" from="482080587#1" to="632768296"/>
    <trip id="veh251" type="veh_passenger" depart="98.13" departLane="best" from="-632712182" to="636895150#1"/>
    <trip id="veh252" type="veh_passenger" depart="98.52" departLane="best" from="-819315054" to="539268808#0"/>
    <trip id="veh253" type="veh_passenger" depart="98.92" departLane="best" from="-644038140" to="481881827#1"/>
    <trip id="veh254" type="veh_passenger" depart="99.31" departLane="best" from="223860433#2" to="465657488#1"/>
    <trip id="veh255" type="veh_passenger" depart="99.70" departLane="best" from="646717458" to="481881827#1"/>
    <trip id="veh256" type="veh_passenger" depart="100.09" departLane="best" from="646650613" to="656456706"/>
    <trip id="veh257" type="veh_passenger" depart="100.48" departLane="best" from="251582080#0" to="-646653737"/>
    <trip id="veh258" type="veh_passenger" depart="100.87" departLane="best" from="-482519381#2" to="632377338"/>
    <trip id="veh259" type="veh_passenger" depart="101.26" departLane="best" from="99449562#2" to="479758800#1"/>
    <trip id="veh260" type="veh_passenger" depart="101.65" departLane="best" from="639627002" to="649370259"/>
    <trip id="veh261" type="veh_passenger" depart="102.04" departLane="best" from="639684046" to="646631521#0"/>
    <trip id="veh262" type="veh_passenger" depart="102.43" departLane="best" from="75237305#0" to="175959438#0"/>
    <trip id="veh263" type="veh_passenger" depart="102.82" departLane="best" from="-499763031#0" to="135957332#1"/>